Version 4.1
SHEET 1 880 680
WIRE -64 -304 -176 -304
WIRE -176 -272 -176 -304
WIRE -64 -272 -64 -304
WIRE -176 -112 -176 -192
WIRE -64 -112 -64 -192
WIRE -256 -48 -256 -64
WIRE 176 -32 144 -32
WIRE 304 -32 256 -32
WIRE -256 48 -256 32
WIRE 208 96 208 80
WIRE 0 112 -64 112
WIRE 144 112 144 -32
WIRE 144 112 80 112
WIRE 176 112 144 112
WIRE 304 128 304 -32
WIRE 304 128 240 128
WIRE 320 128 304 128
WIRE 416 128 400 128
WIRE -256 144 -256 128
WIRE 176 144 144 144
WIRE -64 176 -64 112
WIRE 208 176 208 160
WIRE 144 208 144 144
WIRE 416 224 416 128
WIRE -256 240 -256 224
WIRE -64 272 -64 256
FLAG 416 224 0
FLAG -256 240 0
FLAG -256 48 0
FLAG -256 -64 V+
FLAG -256 128 V-
FLAG 208 80 V+
FLAG 208 176 V-
FLAG -64 272 0
FLAG 144 208 0
FLAG -64 -112 0
FLAG -176 -112 0
SYMBOL OpAmps\\AD549 208 64 R0
SYMATTR InstName U1
SYMBOL voltage -256 240 R180
WINDOW 0 24 96 Left 2
WINDOW 3 24 16 Left 2
WINDOW 123 0 0 Left 0
WINDOW 39 0 0 Left 0
SYMATTR InstName V1
SYMATTR Value 5
SYMBOL voltage -256 -64 R0
WINDOW 123 0 0 Left 0
WINDOW 39 0 0 Left 0
SYMATTR InstName V2
SYMATTR Value 5
SYMBOL res 416 112 R90
WINDOW 0 0 56 VBottom 2
WINDOW 3 32 56 VTop 2
SYMATTR InstName R1
SYMATTR Value 100
SYMBOL voltage -64 -288 R0
WINDOW 123 24 124 Left 2
WINDOW 39 0 0 Left 0
SYMATTR Value2 AC 1
SYMATTR InstName V3
SYMATTR Value PULSE(0 100m 1m 1u 1u 1m 5m 2)
SYMBOL voltage -64 160 R0
WINDOW 123 24 124 Left 2
WINDOW 39 0 0 Left 0
SYMATTR Value2 AC 1
SYMATTR InstName V4
SYMATTR Value SINE(0 100m 1k)
SYMBOL res 96 96 R90
WINDOW 0 0 56 VBottom 2
WINDOW 3 32 56 VTop 2
SYMATTR InstName R2
SYMATTR Value 1k
SYMBOL res 272 -48 R90
WINDOW 0 0 56 VBottom 2
WINDOW 3 32 56 VTop 2
SYMATTR InstName R3
SYMATTR Value 2k
SYMBOL res -192 -288 R0
SYMATTR InstName R4
SYMATTR Value 10k
TEXT -152 24 Left 2 !.ac dec 500 1 600meg
TEXT -152 64 Left 2 ;.tran 0 10m 0
